13
Properties=species:S:1:pos:R:3 pbc="F F F"
H        0.00000000       0.00000000       0.00000000
O        0.96831095       0.00000000       0.00000000
C        1.47593350       1.26204606       0.00000000
C        2.98305587       1.22374797      -0.04114555
N        3.34092399       0.36184462      -1.17633662
H        4.32715001       0.33519641      -1.35896176
O        0.77218721       2.23342468       0.05095534
C        3.53453242       2.62901572      -0.26044396
H        3.31585599       0.83452616       0.92080538
H        2.93479028      -0.55318848      -1.11702743
H        4.61826570       2.61176902      -0.25185415
H        3.19627567       2.99373433      -1.21999063
H        3.19009001       3.30212077       0.51257319
