36
AlaPhe
H        -2.00000000       0.00000000       0.00000000
O        -2.96831095       0.00000000       0.00000000
C        -3.47593350       1.26204606       0.00000000
C        -4.98305587       1.22374797      -0.04114555
N        -5.34092399       0.36184462      -1.17633662
H        -6.32715001       0.33519641      -1.35896176
O        -2.77218721       2.23342468       0.05095534
C        -5.53453242       2.62901572      -0.26044396
H        -5.31585599       0.83452616       0.92080538
H        -4.93479028      -0.55318848      -1.11702743
H        -6.61826570       2.61176902      -0.25185415
H        -5.19627567       2.99373433      -1.21999063
H        -5.19009001       3.30212077       0.51257319
H        0.00000000       0.00000000       0.00000000
O        0.96845287       0.00000000       0.00000000
C        1.47695727       1.25988083       0.00000000
C        2.98470990       1.22981381      -0.03061755
N        3.36925492       0.33252007      -1.12509903
H        4.36395457       0.26178211      -1.23549972
O        0.77401791       2.23309313       0.04519256
C        3.52248247       2.64408779      -0.29145809
H        3.31758403       0.88876199       0.94970951
H        2.92520964      -0.56478838      -1.06241481
C        5.03682896       2.67317021      -0.25375046
H        3.16088599       2.95505926      -1.26173827
H        3.11318647       3.31852428       0.44903754
C        5.77927276       2.56668151      -1.42179103
C        7.16366136       2.56181276      -1.38120287
C        7.82411303       2.66548677      -0.17038655
C        7.09227676       2.77614123       0.99992549
C        5.70994431       2.78020167       0.95648604
H        5.27031672       2.48953409      -2.36276656
H        7.72266856       2.48119077      -2.29258827
H        8.89548280       2.66479253      -0.13811465
H        7.59679989       2.86320874       1.94197477
H        5.14926345       2.87482438       1.86698851
