33

C     -2.085407    2.099047   -0.253128
C     -2.257595    0.891470    0.654502
C     -3.567147    0.175577    0.327041
O     -3.688128   -0.840749   -0.342954
O     -4.652897    0.800797    0.824463
N     -1.161592   -0.052739    0.456013
C     -0.741876   -0.876781    1.478793
O     -1.085465   -0.710175    2.646766
C      0.234919   -1.997755    1.066224
C      1.699132   -1.536722    1.198311
C      2.150102   -0.478152    0.214607
C      2.015014    0.883264    0.519470
C      2.412891    1.857182   -0.397544
C      2.954049    1.480924   -1.625199
C      3.100889    0.130600   -1.936048
C      2.702916   -0.844531   -1.020563
N     -0.095589   -2.547667   -0.270555
H     -1.137548    2.607932   -0.047911
H     -2.084564    1.806754   -1.309541
H     -2.898420    2.818409   -0.109460
H     -2.281516    1.198316    1.705632
H     -5.404647    0.229718    0.560335
H     -1.038944   -0.411487   -0.481537
H      0.069183   -2.813945    1.780693
H      2.360002   -2.408496    1.098293
H      1.870874   -1.159980    2.215766
H      1.595151    1.194915    1.474169
H      2.303786    2.910140   -0.151072
H      3.267996    2.240108   -2.336697
H      3.530531   -0.163990   -2.890057
H      2.827132   -1.895644   -1.275154
H     -1.104868   -2.685480   -0.341842
H      0.191636   -1.900861   -1.001243
