17
Properties=species:S:1:pos:R:3 pbc="F F F"
H        0.00000000       0.00000000       0.00000000
O        0.96828128       0.00000000       0.00000000
C        1.47767114       1.25680316       0.00000000
C        2.98354481       1.22555671      -0.02453898
N        3.38773975       0.33225703      -1.11826732
H        4.38916134       0.25840004      -1.15104176
O        0.77618662       2.23260118       0.04324963
C        3.50657238       2.62951492      -0.29642659
H        3.32186475       0.89120601       0.95398921
H        2.93929425      -0.56388001      -1.05870956
C        5.01578108       2.69019972      -0.18322175
H        3.22147464       2.89995792      -1.30627042
H        3.05600812       3.34123442       0.38317966
N        5.53778045       3.93398522      -0.26625299
H        6.52844798       4.04251755      -0.22128191
H        4.97284398       4.74505421      -0.38197079
O        5.70796248       1.69330099      -0.03870136
