22
Properties=species:S:1:pos:R:3 pbc="F F F"
H        0.00000000       0.00000000       0.00000000
O        0.96856641       0.00000000       0.00000000
C        1.47449060       1.26484764       0.00000000
C        2.98729951       1.22340221      -0.04453056
N        3.31062241       0.40082790      -1.22589389
H        4.28576916       0.17948592      -1.29680122
O        0.75760111       2.22802579       0.03200619
C        3.56086282       2.64915437      -0.14921091
H        3.31930724       0.76843082       0.88899506
H        2.74371780      -0.42621380      -1.27044600
C        5.04404283       2.62003330      -0.57266241
H        2.99479500       3.16822917      -0.91252831
C        3.37889845       3.37101368       1.20076075
C        5.65711678       4.02478603      -0.74286823
H        5.62008209       2.06142070       0.16191738
H        5.12006175       2.10487791      -1.52148428
H        6.65388557       3.94976683      -1.16369693
H        5.05198319       4.62285643      -1.41608810
H        5.73442423       4.54599905       0.20250827
H        3.68126111       4.40749598       1.13102403
H        2.34132866       3.35274745       1.50177858
H        3.98104519       2.89188642       1.96774382
