17
Properties=species:S:1:pos:R:3 pbc="F F F"
C        0.00000000       0.00000000       0.00000000
C        1.50000000       0.00000000       0.00000000
C        1.99999455       1.41421549       0.00000000
C        0.83332063       2.35701554       0.00000000
N       -0.44444807       1.57132658       0.00000000
C       -0.49999455      -0.70710774       1.22474654
O       -1.99999455      -0.70710774       1.22474654
H       -2.35665734      -1.21151127       2.09839907
O        0.57334546      -1.14079577       1.97591623
H       -0.35666278      -0.50440352      -0.87365253
H        1.85666278      -0.50440352       0.87365253
H        1.85666278      -0.50440352      -0.87365253
H        2.59443770       1.58234816       0.87365253
H        2.59443770       1.58234816      -0.87365253
H        0.87294896       2.97350630       0.87365253
H        0.87294896       2.97350630      -0.87365253
H       -0.99123806       1.80510451       0.84099262
