14
Properties=species:S:1:pos:R:3 pbc="F F F"
H        0.00000000       0.00000000       0.00000000
O        0.96837999       0.00000000       0.00000000
C        1.47658988       1.25649939       0.00000000
C        2.97603116       1.22683773      -0.05391051
N        3.35395946       0.42907074      -1.22256163
H        4.33441669       0.52433588      -1.41415205
O        0.77887646       2.23490367       0.05054149
C        3.50806508       2.63297736      -0.25418145
H        3.35010060       0.83646634       0.88980940
H        3.05084773      -0.52502265      -1.16412514
O        4.94184245       2.47727486      -0.32708728
H        3.10200550       3.02579132      -1.17538600
H        3.21639840       3.27176333       0.56788680
H        5.36978966       3.30424724      -0.58027811
