17
Properties=species:S:1:pos:R:3 pbc="F F F"
H        0.00000000       0.00000000       0.00000000
O        0.96906882       0.00000000       0.00000000
C        1.48280485       1.25153410       0.00000000
C        2.99610612       1.22268831      -0.06908750
N        3.42401540       0.61642782      -1.32831281
H        3.06281853      -0.30388554      -1.49054677
O        0.77794025       2.23287942       0.00934605
C        3.53227877       2.65506651      -0.00547227
H        3.36305768       0.63576110       0.76103002
H        3.30233827       1.25128165      -2.09638039
C        5.05274456       2.70266935      -0.03744009
O        3.06221734       3.36457349      -1.17330377
H        3.16152122       3.12907646       0.89518678
H        2.11979341       3.55619426      -1.06284516
H        5.37390650       3.73477699      -0.08252049
H        5.46784933       2.23910879       0.85026284
H        5.41192523       2.17766335      -0.90911047
